data_image0
_chemical_formula_structural       BaO2RbSeO4SeO2
_chemical_formula_sum              "Ba1 O8 Rb1 Se2"
_cell_length_a       5.573679066024613
_cell_length_b       5.4559259586818865
_cell_length_c       9.432414054870605
_cell_angle_alpha    78.70813520230746
_cell_angle_beta     91.46240064332476
_cell_angle_gamma    68.16521161377493

_space_group_name_H-M_alt    "P 1"
_space_group_IT_number       1

loop_
  _space_group_symop_operation_xyz
  'x, y, z'

loop_
  _atom_site_type_symbol
  _atom_site_label
  _atom_site_symmetry_multiplicity
  _atom_site_fract_x
  _atom_site_fract_y
  _atom_site_fract_z
  _atom_site_occupancy
  Ba  Ba1       1.0  0.07991819083690643  0.5754954814910889  0.2936185896396637  1.0000
  O   O1        1.0  0.3935812413692473  0.20932848751544955  0.5401991605758667  1.0000
  O   O2        1.0  0.3533778190612793  0.7234801650047302  0.6388832330703735  1.0000
  Rb  Rb1       1.0  0.9071978330612182  0.9073210954666139  0.7945149540901184  1.0000
  Se  Se1       1.0  0.6315628290176392  0.32072895765304565  0.06911957263946533  1.0000
  O   O3        1.0  0.7355123162269592  0.9861577153205872  0.0829453244805336  1.0000
  O   O4        1.0  0.7678385376930237  0.44593900442123413  0.936270833015442  1.0000
  O   O5        1.0  0.7071929574012756  0.3821382522583008  0.2285233736038208  1.0000
  O   O6        1.0  0.30399662256240845  0.4718143343925476  0.037922091782093055  1.0000
  Se  Se2       1.0  0.45809277892112726  0.9017053842544556  0.5084393620491028  1.0000
  O   O7        1.0  0.7736825942993164  0.7491198778152466  0.5050428509712219  1.0000
  O   O8        1.0  0.29572048783302307  0.9394781589508057  0.3469463288784027  1.0000
