data_image0
_chemical_formula_structural       Ga2Ca3Ga2IrGa2IrGaIrCaGa4Ir2
_chemical_formula_sum              "Ga11 Ca4 Ir5"
_cell_length_a       4.141574536381105
_cell_length_b       8.224200299756994
_cell_length_c       11.379012107849121
_cell_angle_alpha    94.18062468187992
_cell_angle_beta     89.98439552153759
_cell_angle_gamma    89.99892333444367

_space_group_name_H-M_alt    "P 1"
_space_group_IT_number       1

loop_
  _space_group_symop_operation_xyz
  'x, y, z'

loop_
  _atom_site_type_symbol
  _atom_site_label
  _atom_site_symmetry_multiplicity
  _atom_site_fract_x
  _atom_site_fract_y
  _atom_site_fract_z
  _atom_site_occupancy
  Ga  Ga1       1.0  0.3938085436820984  0.5910768508911133  0.6154044270515442  1.0000
  Ga  Ga2       1.0  0.3931106925010681  0.8532435297966003  0.12747487425804138  1.0000
  Ca  Ca1       1.0  0.3936476707458496  0.9186024069786071  0.4084228277206421  1.0000
  Ca  Ca2       1.0  0.8938313126564026  0.2963407933712005  0.4078270196914673  1.0000
  Ca  Ca3       1.0  0.3934692442417145  0.3780516684055328  0.8648823499679565  1.0000
  Ga  Ga3       1.0  0.8933908939361572  0.3277533948421478  0.11307036876678467  1.0000
  Ga  Ga4       1.0  0.8935838937759399  0.1315380185842514  0.7346532940864563  1.0000
  Ir  Ir1       1.0  0.39331719279289246  0.9508878588676452  0.7227051854133606  1.0000
  Ga  Ga5       1.0  0.3940187692642212  0.20830148458480835  0.21450109779834747  1.0000
  Ga  Ga6       1.0  0.3932024836540222  0.7622358798980713  0.8876848816871643  1.0000
  Ir  Ir2       1.0  0.894119918346405  0.4054279029369354  0.651820182800293  1.0000
  Ga  Ga7       1.0  0.39370736479759216  0.5483224987983703  0.36373090744018555  1.0000
  Ir  Ir3       1.0  0.8934398889541626  0.022121287882328033  0.21031737327575684  1.0000
  Ca  Ca4       1.0  0.8930761814117432  0.0005661221221089363  0.9576976299285889  1.0000
  Ga  Ga8       1.0  0.8934290409088135  0.8438663482666016  0.6071029305458069  1.0000
  Ga  Ga9       1.0  0.893324613571167  0.7034398913383484  0.24854288995265958  1.0000
  Ga  Ga10      1.0  0.39343535900115967  0.21894939243793488  0.598341703414917  1.0000
  Ga  Ga11      1.0  0.893210232257843  0.5999190211296082  0.0060102352872490935  1.0000
  Ir  Ir4       1.0  0.8938286900520325  0.6693629026412963  0.7892532348632812  1.0000
  Ir  Ir5       1.0  0.39331740140914917  0.5240946412086486  0.1460701674222946  1.0000
