data_image0
_chemical_formula_structural       RbBrEuHfFPtBrRhPAsTbNaMgMnRb
_chemical_formula_sum              "Rb2 Br2 Eu1 Hf1 F1 Pt1 Rh1 P1 As1 Tb1 Na1 Mg1 Mn1"
_cell_length_a       1384.4815683304462
_cell_length_b       1229.5320443768908
_cell_length_c       1243.3846435546875
_cell_angle_alpha    1.9594463973696101
_cell_angle_beta     6.804866467173456
_cell_angle_gamma    6.837183206313109

_space_group_name_H-M_alt    "P 1"
_space_group_IT_number       1

loop_
  _space_group_symop_operation_xyz
  'x, y, z'

loop_
  _atom_site_type_symbol
  _atom_site_label
  _atom_site_symmetry_multiplicity
  _atom_site_fract_x
  _atom_site_fract_y
  _atom_site_fract_z
  _atom_site_occupancy
  Rb  Rb1       1.0  0.5775696635246278  0.7733094692230226  0.13005898892879472  1.0000
  Br  Br1       1.0  0.8046094179153442  0.4308640658855438  0.5587096810340882  1.0000
  Eu  Eu1       1.0  0.349782109260559  0.8792531490325929  0.6309903264045716  1.0000
  Hf  Hf1       1.0  0.5399278402328492  0.2964349091053008  0.7749476432800294  1.0000
  F   F1        1.0  0.8908336758613585  0.7062206268310549  0.9953064322471616  1.0000
  Pt  Pt1       1.0  0.4370755553245544  0.9608340859413148  0.35648700594902033  1.0000
  Br  Br2       1.0  0.5236518383026123  0.7551648020744324  0.6108269691467284  1.0000
  Rh  Rh1       1.0  0.05561859533190721  0.544127583503723  0.9028816223144532  1.0000
  P   P1        1.0  0.6136854887008667  0.8934593796730042  0.5008939504623414  1.0000
  As  As1       1.0  0.029160566627979213  0.9521169066429137  0.5926696062088015  1.0000
  Tb  Tb1       1.0  0.3146023750305177  0.02759975194931038  0.846903085708618  1.0000
  Na  Na1       1.0  0.5516603589057921  0.6384029984474182  0.9955376386642458  1.0000
  Mg  Mg1       1.0  0.22282409667968756  0.4154177606105805  0.0392340943217277  1.0000
  Mn  Mn1       1.0  0.48887208104133606  0.44119521975517273  0.6183921098709106  1.0000
  Rb  Rb2       1.0  0.08309974521398533  0.6656600236892702  0.2681886851787566  1.0000
