data_image0
_chemical_formula_structural       I2EuI2Se2AsSe2EuSe
_chemical_formula_sum              "I4 Eu2 Se5 As1"
_cell_length_a       4.219795077994528
_cell_length_b       8.117980040154285
_cell_length_c       13.773665428161621
_cell_angle_alpha    105.42853124059715
_cell_angle_beta     90.02258311142529
_cell_angle_gamma    105.06773847811517

_space_group_name_H-M_alt    "P 1"
_space_group_IT_number       1

loop_
  _space_group_symop_operation_xyz
  'x, y, z'

loop_
  _atom_site_type_symbol
  _atom_site_label
  _atom_site_symmetry_multiplicity
  _atom_site_fract_x
  _atom_site_fract_y
  _atom_site_fract_z
  _atom_site_occupancy
  I   I1        1.0  0.18966934084892273  0.1660139411687851  0.29205700755119324  1.0000
  I   I2        1.0  0.48899295926094055  0.7633598446846008  0.46092918515205383  1.0000
  Eu  Eu1       1.0  0.8424459099769592  0.47064799070358276  0.29832202196121216  1.0000
  I   I3        1.0  0.9661882519721985  0.7156722545623779  0.9843934774398803  1.0000
  I   I4        1.0  0.6756768822669983  0.1356581151485443  0.7833595275878905  1.0000
  Se  Se1       1.0  0.9348934292793274  0.6521554589271545  0.7144944071769713  1.0000
  Se  Se2       1.0  0.30975160002708435  0.40660369396209717  0.051630754023790366  1.0000
  As  As1       1.0  0.8236188888549805  0.4269948601722718  0.5554832220077515  1.0000
  Se  Se3       1.0  0.236349955201149  0.25568968057632446  0.5911694169044495  1.0000
  Se  Se4       1.0  0.45259618759155273  0.6899742484092712  0.2516453266143799  1.0000
  Eu  Eu2       1.0  0.34060758352279663  0.4657427966594696  0.8155181407928466  1.0000
  Se  Se5       1.0  0.7268182635307312  0.24370475113391876  0.07383044064044952  1.0000
