data_image0
_chemical_formula_structural       FDyFDyFCr2F3CrF7
_chemical_formula_sum              "F13 Dy2 Cr3"
_cell_length_a       4.96245280279887
_cell_length_b       5.959715143691231
_cell_length_c       9.768343925476074
_cell_angle_alpha    90.09319360223624
_cell_angle_beta     89.9772511428428
_cell_angle_gamma    112.97601169109127

_space_group_name_H-M_alt    "P 1"
_space_group_IT_number       1

loop_
  _space_group_symop_operation_xyz
  'x, y, z'

loop_
  _atom_site_type_symbol
  _atom_site_label
  _atom_site_symmetry_multiplicity
  _atom_site_fract_x
  _atom_site_fract_y
  _atom_site_fract_z
  _atom_site_occupancy
  F   F1        1.0  0.32153552770614624  0.11208799481391908  0.514934241771698  1.0000
  Dy  Dy1       1.0  0.8305547833442688  0.9725674390792847  0.45246583223342896  1.0000
  F   F2        1.0  0.8521979451179504  0.9500170946121217  0.03434918820858002  1.0000
  Dy  Dy2       1.0  0.521981954574585  0.3996076583862305  0.6709170937538147  1.0000
  F   F3        1.0  0.1780501753091812  0.30897483229637146  0.8305136561393738  1.0000
  Cr  Cr1       1.0  0.8483771085739136  0.26181343197822576  0.9632936120033264  1.0000
  Cr  Cr2       1.0  0.16332362592220306  0.8957172632217407  0.9454517364501953  1.0000
  F   F4        1.0  0.3979787230491638  0.6131465435028076  0.48817288875579834  1.0000
  F   F5        1.0  0.16565203666687012  0.5857097506523132  0.09123144298791885  1.0000
  F   F6        1.0  0.054448254406452186  0.2476688325405121  0.2974313795566559  1.0000
  Cr  Cr3       1.0  0.25062716007232666  0.5871554613113403  0.28844818472862244  1.0000
  F   F7        1.0  0.8808833360671997  0.2950427830219269  0.5934281945228577  1.0000
  F   F8        1.0  0.8741335868835449  0.6704116463661194  0.34034740924835205  1.0000
  F   F9        1.0  0.8213797807693481  0.5556515455245972  0.8676497936248779  1.0000
  F   F10       1.0  0.4710341989994049  0.02014141529798508  0.7963091135025024  1.0000
  F   F11       1.0  0.4701007306575775  0.1857031136751175  0.0530257523059845  1.0000
  F   F12       1.0  0.5002400279045106  0.9219858646392823  0.287411630153656  1.0000
  F   F13       1.0  0.8443112969398499  0.7750594615936279  0.6445862650871277  1.0000
