data_image0
_chemical_formula_structural       CoIZnRb
_chemical_formula_sum              "Co1 I1 Zn1 Rb1"
_cell_length_a       258.55971589798384
_cell_length_b       229.03000637450324
_cell_length_c       222.95968627929688
_cell_angle_alpha    2.878752398850812
_cell_angle_beta     30.69226058097518
_cell_angle_gamma    28.8484048591698

_space_group_name_H-M_alt    "P 1"
_space_group_IT_number       1

loop_
  _space_group_symop_operation_xyz
  'x, y, z'

loop_
  _atom_site_type_symbol
  _atom_site_label
  _atom_site_symmetry_multiplicity
  _atom_site_fract_x
  _atom_site_fract_y
  _atom_site_fract_z
  _atom_site_occupancy
  Co  Co1       1.0  0.6237638592720034  0.9978474974632263  0.6313329339027403  1.0000
  I   I1        1.0  0.346179723739624  0.6441421508789064  0.23986947536468492  1.0000
  Zn  Zn1       1.0  0.7493524551391604  0.7058579921722412  0.17342713475227337  1.0000
  Rb  Rb1       1.0  0.35606846213340765  0.4919921457767486  0.768967866897583  1.0000
