data_image0
_chemical_formula_structural       RbNRbTeIRb2CeTeRb3
_chemical_formula_sum              "Rb7 N1 Te2 I1 Ce1"
_cell_length_a       940.0209014010145
_cell_length_b       1024.0328378190882
_cell_length_c       884.6229248046875
_cell_angle_alpha    0.4252062823377036
_cell_angle_beta     1.3080585601315742
_cell_angle_gamma    1.3826592079522078

_space_group_name_H-M_alt    "P 1"
_space_group_IT_number       1

loop_
  _space_group_symop_operation_xyz
  'x, y, z'

loop_
  _atom_site_type_symbol
  _atom_site_label
  _atom_site_symmetry_multiplicity
  _atom_site_fract_x
  _atom_site_fract_y
  _atom_site_fract_z
  _atom_site_occupancy
  Rb  Rb1       1.0  0.15869390964508057  0.1029074415564537  0.7556390762329102  1.0000
  N   N1        1.0  0.07135915756225586  0.3992991745471954  0.4778610765933991  1.0000
  Rb  Rb2       1.0  0.016348816454410553  0.71811181306839  0.5220602154731749  1.0000
  Te  Te1       1.0  0.3897815942764282  0.5252403616905212  0.12099831551313396  1.0000
  I   I1        1.0  0.3073197007179261  0.2284866571426392  0.9826936721801757  1.0000
  Rb  Rb3       1.0  0.7338459491729736  0.44936552643775957  0.8661883473396299  1.0000
  Rb  Rb4       1.0  0.5871475934982301  0.31402674317359924  0.909789204597473  1.0000
  Ce  Ce1       1.0  0.977531969547272  0.41456037759780906  0.8309758901596065  1.0000
  Te  Te2       1.0  0.5967164635658265  0.4668166041374206  0.5520170927047728  1.0000
  Rb  Rb5       1.0  0.48288160562515264  0.3948520123958588  0.003271398134529495  1.0000
  Rb  Rb6       1.0  0.23858891427516946  0.1477637439966202  0.9629322290420531  1.0000
  Rb  Rb7       1.0  0.12635523080825806  0.6759138107299806  0.43511316180229176  1.0000
