data_image0
_chemical_formula_structural       AuMgGa
_chemical_formula_sum              "Au1 Mg1 Ga1"
_cell_length_a       3.221441783180528
_cell_length_b       4.470232944377366
_cell_length_c       4.4703521728515625
_cell_angle_alpha    120.0154107175726
_cell_angle_beta     89.9912666931941
_cell_angle_gamma    90.00075382498527

_space_group_name_H-M_alt    "P 1"
_space_group_IT_number       1

loop_
  _space_group_symop_operation_xyz
  'x, y, z'

loop_
  _atom_site_type_symbol
  _atom_site_label
  _atom_site_symmetry_multiplicity
  _atom_site_fract_x
  _atom_site_fract_y
  _atom_site_fract_z
  _atom_site_occupancy
  Au  Au1       1.0  0.8770750164985657  0.41196596622467035  0.7009368538856506  1.0000
  Mg  Mg1       1.0  0.3785894811153412  0.07835894823074341  0.03426927700638771  1.0000
  Ga  Ga1       1.0  0.8780606389045715  0.7447996735572815  0.36708810925483704  1.0000
