data_image0
_chemical_formula_structural       TlRbNa2TlRb3NaTl2O
_chemical_formula_sum              "Tl4 Rb4 Na3 O1"
_cell_length_a       7.270108587839207
_cell_length_b       7.989045789519277
_cell_length_c       9.26846694946289
_cell_angle_alpha    104.90054535536537
_cell_angle_beta     113.81497360384655
_cell_angle_gamma    94.1936558819379

_space_group_name_H-M_alt    "P 1"
_space_group_IT_number       1

loop_
  _space_group_symop_operation_xyz
  'x, y, z'

loop_
  _atom_site_type_symbol
  _atom_site_label
  _atom_site_symmetry_multiplicity
  _atom_site_fract_x
  _atom_site_fract_y
  _atom_site_fract_z
  _atom_site_occupancy
  Tl  Tl1       1.0  0.9982940554618835  0.6752757430076599  0.15321843326091766  1.0000
  Rb  Rb1       1.0  0.9712862372398376  0.4730854630470276  0.5731982588768005  1.0000
  Na  Na1       1.0  0.22508248686790466  0.19463407993316648  0.27204495668411255  1.0000
  Na  Na2       1.0  0.6178128123283386  0.08518965542316437  0.5314951539039612  1.0000
  Tl  Tl2       1.0  0.4736984074115753  0.6295374035835266  0.43568432331085205  1.0000
  Rb  Rb2       1.0  0.15066668391227722  0.9601175785064697  0.6064612865447998  1.0000
  Rb  Rb3       1.0  0.598177433013916  0.2855234146118164  0.1243179515004158  1.0000
  Rb  Rb4       1.0  0.4439390301704407  0.7611203193664551  0.05968775972723956  1.0000
  Na  Na3       1.0  0.6169101595878601  0.4666973054409027  0.7285867929458618  1.0000
  Tl  Tl3       1.0  0.010463174432516101  0.29830968379974365  0.9384322762489319  1.0000
  Tl  Tl4       1.0  0.8602190613746643  0.8958301544189453  0.8850960731506348  1.0000
  O   O1        1.0  0.5535063147544861  0.340125024318695  0.44819727540016174  1.0000
