data_image0
_chemical_formula_structural       HSbNaHoBaOLaNbMoHPOHfTbKRbGdLa
_chemical_formula_sum              "H2 Sb1 Na1 Ho1 Ba1 O2 La2 Nb1 Mo1 P1 Hf1 Tb1 K1 Rb1 Gd1"
_cell_length_a       3381.0427008716424
_cell_length_b       3130.3577005320117
_cell_length_c       3591.923583984375
_cell_angle_alpha    6.709667218773234
_cell_angle_beta     6.764019172384389
_cell_angle_gamma    4.2361501883150225

_space_group_name_H-M_alt    "P 1"
_space_group_IT_number       1

loop_
  _space_group_symop_operation_xyz
  'x, y, z'

loop_
  _atom_site_type_symbol
  _atom_site_label
  _atom_site_symmetry_multiplicity
  _atom_site_fract_x
  _atom_site_fract_y
  _atom_site_fract_z
  _atom_site_occupancy
  H   H1        1.0  0.775501787662506  0.6917874217033387  0.15346263349056255  1.0000
  Sb  Sb1       1.0  0.4229719042778017  0.5272498726844788  0.8576847314834594  1.0000
  Na  Na1       1.0  0.3650382459163663  0.954981803894043  0.5847960114479067  1.0000
  Ho  Ho1       1.0  0.20070368051528903  0.9807363152503967  0.671416223049164  1.0000
  Ba  Ba1       1.0  0.8288301825523375  0.3692434132099152  0.8860844373703004  1.0000
  O   O1        1.0  0.7231889367103574  0.640747606754303  0.10939928144216556  1.0000
  La  La1       1.0  0.03199099376797663  0.8996968269348145  0.5500144362449647  1.0000
  Nb  Nb1       1.0  0.36060142517089816  0.857920527458191  0.6139181256294252  1.0000
  Mo  Mo1       1.0  0.3944844603538515  0.3432382047176361  0.5399217009544371  1.0000
  H   H2        1.0  0.8327685594558716  0.8854570984840393  0.4050930738449096  1.0000
  P   P1        1.0  0.07391640543937669  0.32718250155448914  0.2894953191280366  1.0000
  O   O2        1.0  0.3723092973232268  0.5701121091842651  0.8422944545745851  1.0000
  Hf  Hf1       1.0  0.26379194855689997  0.3707111477851868  0.16195400059223178  1.0000
  Tb  Tb1       1.0  0.17025031149387349  0.8516237735748292  0.8928626179695129  1.0000
  K   K1        1.0  0.4100991189479827  0.5142026543617249  0.08119343221187604  1.0000
  Rb  Rb1       1.0  0.06538420170545592  0.01746917888522148  0.7195637822151183  1.0000
  Gd  Gd1       1.0  0.5835561752319334  0.3949434161186219  0.08168327063322081  1.0000
  La  La2       1.0  0.3096019923686981  0.23629991710186005  0.011954601854085927  1.0000
