data_image0
_chemical_formula_structural       HRbEuYbSCaHMo
_chemical_formula_sum              "H2 Rb1 Eu1 Yb1 S1 Ca1 Mo1"
_cell_length_a       1656.7717243260904
_cell_length_b       1336.5799657020273
_cell_length_c       1761.5791015625
_cell_angle_alpha    5.969428497341712
_cell_angle_beta     18.688954859569773
_cell_angle_gamma    20.663667594105984

_space_group_name_H-M_alt    "P 1"
_space_group_IT_number       1

loop_
  _space_group_symop_operation_xyz
  'x, y, z'

loop_
  _atom_site_type_symbol
  _atom_site_label
  _atom_site_symmetry_multiplicity
  _atom_site_fract_x
  _atom_site_fract_y
  _atom_site_fract_z
  _atom_site_occupancy
  H   H1        1.0  0.8395997881889344  0.3252033591270447  0.9090283513069152  1.0000
  Rb  Rb1       1.0  0.37006947398185736  0.6339295506477355  0.38791504502296453  1.0000
  Eu  Eu1       1.0  0.9792386889457703  0.7142655253410339  0.15937891602516172  1.0000
  Yb  Yb1       1.0  0.6213166117668152  0.3871476352214813  0.2971966862678528  1.0000
  S   S1        1.0  0.8209001421928406  0.22309330105781558  0.21453692018985743  1.0000
  Ca  Ca1       1.0  0.22712706029415142  0.13725934922695165  0.572819948196411  1.0000
  H   H2        1.0  0.23744757473468775  0.24137639999389668  0.7471864223480223  1.0000
  Mo  Mo1       1.0  0.68355530500412  0.2461820989847184  0.7542666196823119  1.0000
