data_image0
_chemical_formula_structural       RbClNaClMnClZnRb
_chemical_formula_sum              "Rb2 Cl3 Na1 Mn1 Zn1"
_cell_length_a       25.26133731337731
_cell_length_b       29.612538867903602
_cell_length_c       31.245840072631836
_cell_angle_alpha    37.15184548575608
_cell_angle_beta     37.19993058334866
_cell_angle_gamma    23.466617281339996

_space_group_name_H-M_alt    "P 1"
_space_group_IT_number       1

loop_
  _space_group_symop_operation_xyz
  'x, y, z'

loop_
  _atom_site_type_symbol
  _atom_site_label
  _atom_site_symmetry_multiplicity
  _atom_site_fract_x
  _atom_site_fract_y
  _atom_site_fract_z
  _atom_site_occupancy
  Rb  Rb1       1.0  0.9564664363861084  0.257540762424469  0.3126741647720337  1.0000
  Cl  Cl1       1.0  0.2700376808643341  0.26383042335510254  0.2678023874759674  1.0000
  Na  Na1       1.0  0.7886134386062623  0.7420337200164794  0.7913023829460144  1.0000
  Cl  Cl2       1.0  0.4262974262237553  0.8051023483276366  0.802402079105377  1.0000
  Mn  Mn1       1.0  0.1869407445192338  0.3975985944271087  0.7510495185852051  1.0000
  Cl  Cl3       1.0  0.8425018191337582  0.805975079536438  0.25315400958061235  1.0000
  Zn  Zn1       1.0  0.2854084074497226  0.9996808767318724  0.5503106713294982  1.0000
  Rb  Rb2       1.0  0.8595579266548152  0.18190087378025055  0.7874467968940738  1.0000
