data_image0
_chemical_formula_structural       AgKSPtCNa
_chemical_formula_sum              "Ag1 K1 S1 Pt1 C1 Na1"
_cell_length_a       809.1528985473561
_cell_length_b       1006.6852156695145
_cell_length_c       835.3345947265625
_cell_angle_alpha    1.7173719720771408
_cell_angle_beta     14.812572463954838
_cell_angle_gamma    15.840044778677882

_space_group_name_H-M_alt    "P 1"
_space_group_IT_number       1

loop_
  _space_group_symop_operation_xyz
  'x, y, z'

loop_
  _atom_site_type_symbol
  _atom_site_label
  _atom_site_symmetry_multiplicity
  _atom_site_fract_x
  _atom_site_fract_y
  _atom_site_fract_z
  _atom_site_occupancy
  Ag  Ag1       1.0  0.4655967950820922  0.9656670093536378  0.1262059807777404  1.0000
  K   K1        1.0  0.5087122917175292  0.391932100057602  0.09427110105752938  1.0000
  S   S1        1.0  0.756571590900421  0.857195019721985  0.997061550617218  1.0000
  Pt  Pt1       1.0  0.8314118981361388  0.6838704347610473  0.6820537447929385  1.0000
  C   C1        1.0  0.20118567347526536  0.9924323558807374  0.9938488006591797  1.0000
  Na  Na1       1.0  0.8330256938934324  0.43724462389945984  0.851204574108124  1.0000
