data_image0
_chemical_formula_structural       Pr2TbDy7SmDy
_chemical_formula_sum              "Pr2 Tb1 Dy8 Sm1"
_cell_length_a       5.7092456859270815
_cell_length_b       6.26208710177572
_cell_length_c       11.872026443481445
_cell_angle_alpha    104.1672568879764
_cell_angle_beta     103.8684688442317
_cell_angle_gamma    89.98009246814111

_space_group_name_H-M_alt    "P 1"
_space_group_IT_number       1

loop_
  _space_group_symop_operation_xyz
  'x, y, z'

loop_
  _atom_site_type_symbol
  _atom_site_label
  _atom_site_symmetry_multiplicity
  _atom_site_fract_x
  _atom_site_fract_y
  _atom_site_fract_z
  _atom_site_occupancy
  Pr  Pr1       1.0  0.2019227147102356  0.037350542843341834  0.3468509912490845  1.0000
  Pr  Pr2       1.0  0.7038273215293884  0.6907410025596619  0.34961414337158203  1.0000
  Tb  Tb1       1.0  0.9533550143241881  0.34001165628433233  0.850331723690033  1.0000
  Dy  Dy1       1.0  0.619828462600708  0.1219434216618538  0.18171556293964386  1.0000
  Dy  Dy2       1.0  0.28630244731903076  0.6126727461814881  0.5151762962341309  1.0000
  Dy  Dy3       1.0  0.868784487247467  0.819901168346405  0.6797377467155457  1.0000
  Dy  Dy4       1.0  0.7857801914215088  0.2654356360435486  0.5139695405960083  1.0000
  Dy  Dy5       1.0  0.03975790739059448  0.8917551636695862  0.02184285596013069  1.0000
  Dy  Dy6       1.0  0.5381998419761658  0.5415745973587036  0.019561389461159706  1.0000
  Dy  Dy7       1.0  0.3600580394268036  0.19847466051578525  0.6635573506355286  1.0000
  Sm  Sm1       1.0  0.46222734451293945  0.9523245692253114  0.8675779700279235  1.0000
  Dy  Dy8       1.0  0.117204949259758  0.4558391273021698  0.17711672186851501  1.0000
