data_image0
_chemical_formula_structural       KSmSeHgSe4SmKSe2
_chemical_formula_sum              "K2 Sm2 Se7 Hg1"
_cell_length_a       4.392524122423261
_cell_length_b       8.123933099707958
_cell_length_c       12.995223999023438
_cell_angle_alpha    116.58195588612945
_cell_angle_beta     90.43684772933862
_cell_angle_gamma    93.77685785419793

_space_group_name_H-M_alt    "P 1"
_space_group_IT_number       1

loop_
  _space_group_symop_operation_xyz
  'x, y, z'

loop_
  _atom_site_type_symbol
  _atom_site_label
  _atom_site_symmetry_multiplicity
  _atom_site_fract_x
  _atom_site_fract_y
  _atom_site_fract_z
  _atom_site_occupancy
  K   K1        1.0  0.38835760951042175  0.9966700077056885  0.5883409380912781  1.0000
  Sm  Sm1       1.0  0.47686973214149475  0.619404435157776  0.7532416582107544  1.0000
  Se  Se1       1.0  0.9437821507453918  0.3365502655506134  0.6790083050727844  1.0000
  Hg  Hg1       1.0  0.9789712429046631  0.34924158453941345  0.4510083794593811  1.0000
  Se  Se2       1.0  0.013063682243227959  0.5216858983039856  0.2679142653942108  1.0000
  Se  Se3       1.0  0.991279661655426  0.017919568344950676  0.08089136332273483  1.0000
  Se  Se4       1.0  0.5127946734428406  0.5854818224906921  0.5144957900047302  1.0000
  Se  Se5       1.0  0.4860174059867859  0.37164536118507385  0.18490876257419586  1.0000
  Sm  Sm2       1.0  0.502920925617218  0.016062956303358078  0.19940167665481567  1.0000
  K   K2        1.0  0.9803727865219116  0.3168557584285736  0.9515998959541321  1.0000
  Se  Se6       1.0  0.009096413850784297  0.8714545965194702  0.7737265825271606  1.0000
  Se  Se7       1.0  0.5294736623764038  0.6597884893417358  0.9919511675834656  1.0000
