data_image0
_chemical_formula_structural       Tm4Ag2TmAu
_chemical_formula_sum              "Tm5 Ag2 Au1"
_cell_length_a       5.105964296058554
_cell_length_b       5.105073546431264
_cell_length_c       9.218515396118164
_cell_angle_alpha    73.9785702833869
_cell_angle_beta     73.9791232090973
_cell_angle_gamma    60.02031510278131

_space_group_name_H-M_alt    "P 1"
_space_group_IT_number       1

loop_
  _space_group_symop_operation_xyz
  'x, y, z'

loop_
  _atom_site_type_symbol
  _atom_site_label
  _atom_site_symmetry_multiplicity
  _atom_site_fract_x
  _atom_site_fract_y
  _atom_site_fract_z
  _atom_site_occupancy
  Tm  Tm1       1.0  0.7244038581848143  0.9739715456962585  0.046656735241413116  1.0000
  Tm  Tm2       1.0  0.5033255815505981  0.751645028591156  0.710738480091095  1.0000
  Tm  Tm3       1.0  0.24544602632522586  0.4944691956043243  0.4839321672916412  1.0000
  Tm  Tm4       1.0  0.9818196296691895  0.23133215308189392  0.27439624071121216  1.0000
  Ag  Ag1       1.0  0.8485235571861267  0.09715431928634644  0.6749505400657654  1.0000
  Ag  Ag2       1.0  0.37899497151374817  0.6282094717025757  0.08335912972688675  1.0000
  Tm  Tm5       1.0  0.1138518825173378  0.36317119002342224  0.8783892393112183  1.0000
  Au  Au1       1.0  0.6133900284767151  0.8625513315200806  0.3797589838504791  1.0000
