data_image0
_chemical_formula_structural       TmLa3TmLa3Tm2LaDy2Tm
_chemical_formula_sum              "Tm5 La7 Dy2"
_cell_length_a       5.828446885879669
_cell_length_b       9.694561199529696
_cell_length_c       9.588957786560059
_cell_angle_alpha    117.87732913203456
_cell_angle_beta     90.07701972112996
_cell_angle_gamma    89.96984721678218

_space_group_name_H-M_alt    "P 1"
_space_group_IT_number       1

loop_
  _space_group_symop_operation_xyz
  'x, y, z'

loop_
  _atom_site_type_symbol
  _atom_site_label
  _atom_site_symmetry_multiplicity
  _atom_site_fract_x
  _atom_site_fract_y
  _atom_site_fract_z
  _atom_site_occupancy
  Tm  Tm1       1.0  0.1062626913189888  0.4190515875816345  0.9612812995910645  1.0000
  La  La1       1.0  0.1053834930062294  0.5758081078529358  0.3969906866550445  1.0000
  La  La2       1.0  0.6048713326454163  0.01736166141927242  0.3276042640209198  1.0000
  La  La3       1.0  0.6072758436203003  0.42164534330368036  0.17662948369979856  1.0000
  Tm  Tm2       1.0  0.6050798296928406  0.6427395343780518  0.9821153879165649  1.0000
  La  La4       1.0  0.10428135097026825  0.8247016668319702  0.2406624555587768  1.0000
  La  La5       1.0  0.6062975525856018  0.22416482865810394  0.752152919769287  1.0000
  La  La6       1.0  0.6046901941299438  0.441506415605545  0.5423840284347534  1.0000
  Tm  Tm3       1.0  0.6083735227584839  0.9930009841918944  0.9502893686294556  1.0000
  Tm  Tm4       1.0  0.10603183507919312  0.014397677034139633  0.7187249064445496  1.0000
  La  La7       1.0  0.10605910420417786  0.7100676894187927  0.8115277886390685  1.0000
  Dy  Dy1       1.0  0.605982780456543  0.7965949773788451  0.5570662617683411  1.0000
  Dy  Dy2       1.0  0.10546252131462097  0.2548515200614929  0.5460206866264343  1.0000
  Tm  Tm5       1.0  0.10838551819324493  0.15787869691848755  0.1455741822719574  1.0000
