data_image0
_chemical_formula_structural       PtPTlPt2TbPPt2TlPt2
_chemical_formula_sum              "Pt7 P2 Tl2 Tb1"
_cell_length_a       4.054547708018674
_cell_length_b       4.053960867266196
_cell_length_c       14.153651237487793
_cell_angle_alpha    93.93878803347339
_cell_angle_beta     93.9324839771217
_cell_angle_gamma    90.03882530380918

_space_group_name_H-M_alt    "P 1"
_space_group_IT_number       1

loop_
  _space_group_symop_operation_xyz
  'x, y, z'

loop_
  _atom_site_type_symbol
  _atom_site_label
  _atom_site_symmetry_multiplicity
  _atom_site_fract_x
  _atom_site_fract_y
  _atom_site_fract_z
  _atom_site_occupancy
  Pt  Pt1       1.0  0.5065280199050903  0.662119448184967  0.10199555009603502  1.0000
  P   P1        1.0  0.9867559671401978  0.640697181224823  0.011664387769997122  1.0000
  Tl  Tl1       1.0  0.4554493725299835  0.11042828112840652  0.8589912652969361  1.0000
  Pt  Pt2       1.0  0.962260365486145  0.6171526312828064  0.8481460809707643  1.0000
  Pt  Pt3       1.0  0.044856540858745575  0.7000126838684082  0.2573067247867584  1.0000
  Tb  Tb1       1.0  0.5446745157241821  0.20032715797424316  0.2576051354408264  1.0000
  P   P2        1.0  0.10313432663679123  0.7585368752479553  0.5026559233665466  1.0000
  Pt  Pt4       1.0  0.0076661258935928345  0.16184091567993164  0.1021174266934395  1.0000
  Pt  Pt5       1.0  0.08214802294969559  0.23817625641822815  0.412473350763321  1.0000
  Tl  Tl2       1.0  0.6329734325408936  0.28814518451690674  0.6554251313209535  1.0000
  Pt  Pt6       1.0  0.12626506388187408  0.7809562087059021  0.666460692882538  1.0000
  Pt  Pt7       1.0  0.5825337171554565  0.7378939986228943  0.4124994277954102  1.0000
