data_image0
_chemical_formula_structural       YTbCeTbAsTbAsYAs4
_chemical_formula_sum              "Y2 Tb3 Ce1 As6"
_cell_length_a       7.151930031950215
_cell_length_b       7.149189594061233
_cell_length_c       7.154362678527832
_cell_angle_alpha    99.57121528648045
_cell_angle_beta     99.618178573924
_cell_angle_gamma    120.01884427144469

_space_group_name_H-M_alt    "P 1"
_space_group_IT_number       1

loop_
  _space_group_symop_operation_xyz
  'x, y, z'

loop_
  _atom_site_type_symbol
  _atom_site_label
  _atom_site_symmetry_multiplicity
  _atom_site_fract_x
  _atom_site_fract_y
  _atom_site_fract_z
  _atom_site_occupancy
  Y   Y1        1.0  0.14798790216445926  0.6607296466827394  0.317815363407135  1.0000
  Tb  Tb1       1.0  0.9809677004814148  0.8274549841880798  0.8177793025970459  1.0000
  Ce  Ce1       1.0  0.8145580887794495  0.9941883683204651  0.3178604245185852  1.0000
  Tb  Tb2       1.0  0.31450632214546204  0.4941428601741791  0.8177371621131897  1.0000
  As  As1       1.0  0.39784634113311773  0.9111501574516297  0.06771852076053622  1.0000
  Tb  Tb3       1.0  0.6481338739395142  0.1610008478164673  0.8178487420082092  1.0000
  As  As2       1.0  0.5640501976013184  0.7436276078224182  0.5672785639762878  1.0000
  Y   Y2        1.0  0.48100602626800537  0.32751134037971497  0.31778568029403687  1.0000
  As  As3       1.0  0.23125627636909485  0.07741085439920425  0.5677652359008789  1.0000
  As  As4       1.0  0.731273353099823  0.5772972106933594  0.06800663471221924  1.0000
  As  As5       1.0  0.06490445137023927  0.24456508457660678  0.06848958134651185  1.0000
  As  As6       1.0  0.8979202508926392  0.41119521856307983  0.5676618814468384  1.0000
