data_image0
_chemical_formula_structural       AuCaSnGeAu5
_chemical_formula_sum              "Au6 Ca1 Sn1 Ge1"
_cell_length_a       5.678975401341127
_cell_length_b       5.681562318467775
_cell_length_c       8.53999137878418
_cell_angle_alpha    89.84117330523188
_cell_angle_beta     90.22596563653745
_cell_angle_gamma    119.95138606174464

_space_group_name_H-M_alt    "P 1"
_space_group_IT_number       1

loop_
  _space_group_symop_operation_xyz
  'x, y, z'

loop_
  _atom_site_type_symbol
  _atom_site_label
  _atom_site_symmetry_multiplicity
  _atom_site_fract_x
  _atom_site_fract_y
  _atom_site_fract_z
  _atom_site_occupancy
  Au  Au1       1.0  0.9696637392044068  0.7966232299804688  0.6451271772384644  1.0000
  Ca  Ca1       1.0  0.9716818928718568  0.2979448139667511  0.4137091040611267  1.0000
  Sn  Sn1       1.0  0.6385302543640137  0.6314491629600525  0.9136780500411987  1.0000
  Ge  Ge1       1.0  0.30495890974998485  0.9644317626953126  0.41288265585899353  1.0000
  Au  Au2       1.0  0.9677029848098756  0.7976553440093994  0.181061789393425  1.0000
  Au  Au3       1.0  0.47367238998413097  0.7976704239845277  0.6457708477973938  1.0000
  Au  Au4       1.0  0.4717614054679871  0.30146849155426025  0.18075495958328247  1.0000
  Au  Au5       1.0  0.4736561477184296  0.300668329000473  0.6450557708740234  1.0000
  Au  Au6       1.0  0.4724084734916688  0.7970490455627443  0.1811033934354782  1.0000
