data_image0
_chemical_formula_structural       TlCl2TlCl5Tl2ClCeTlCl2CeCl2
_chemical_formula_sum              "Tl5 Cl12 Ce2"
_cell_length_a       9.502118593822058
_cell_length_b       9.581636755432584
_cell_length_c       9.072879791259766
_cell_angle_alpha    77.28972973650043
_cell_angle_beta     73.93803207144148
_cell_angle_gamma    90.21942895366031

_space_group_name_H-M_alt    "P 1"
_space_group_IT_number       1

loop_
  _space_group_symop_operation_xyz
  'x, y, z'

loop_
  _atom_site_type_symbol
  _atom_site_label
  _atom_site_symmetry_multiplicity
  _atom_site_fract_x
  _atom_site_fract_y
  _atom_site_fract_z
  _atom_site_occupancy
  Tl  Tl1       1.0  0.8497418165206909  0.06846803426742554  0.5645334720611572  1.0000
  Cl  Cl1       1.0  0.6474112868309021  0.6710001826286316  0.21220216155052185  1.0000
  Cl  Cl2       1.0  0.1287432312965393  0.2873169779777527  0.3388476073741913  1.0000
  Tl  Tl2       1.0  0.648009717464447  0.002425551414489746  0.09869527071714398  1.0000
  Cl  Cl3       1.0  0.8008329272270204  0.7293416261672975  0.6979003548622131  1.0000
  Cl  Cl4       1.0  0.0047892141155898675  0.5769536495208741  0.9985548257827759  1.0000
  Cl  Cl5       1.0  0.34009894728660583  0.9590463638305665  0.37499541044235224  1.0000
  Cl  Cl6       1.0  0.8814314603805542  0.979674518108368  0.2614918351173401  1.0000
  Cl  Cl7       1.0  0.11910267174243927  0.05174385011196137  0.7354352474212646  1.0000
  Tl  Tl3       1.0  0.929374635219574  0.6756635308265687  0.3352388143539428  1.0000
  Tl  Tl4       1.0  0.15007831156253815  0.29693087935447693  0.9636019468307495  1.0000
  Cl  Cl8       1.0  0.43213194608688354  0.5334084630012513  0.9399036169052124  1.0000
  Ce  Ce1       1.0  0.3298719823360443  0.20007501542568207  0.48805519938468933  1.0000
  Tl  Tl5       1.0  0.29060181975364685  0.7483166456222535  0.7210323214530945  1.0000
  Cl  Cl9       1.0  0.5736513137817383  0.28835111856460577  0.24202641844749445  1.0000
  Cl  Cl10      1.0  0.5052762627601624  0.08757635951042177  0.6600571274757385  1.0000
  Ce  Ce2       1.0  0.7145454287528992  0.5299792885780334  0.972994863986969  1.0000
  Cl  Cl11      1.0  0.3029039204120636  0.43506306409835815  0.603905439376831  1.0000
  Cl  Cl12      1.0  0.8201011419296265  0.30299118161201477  0.8519479036331177  1.0000
