data_image0
_chemical_formula_structural       ZnY2Zn2RhY2RhZn
_chemical_formula_sum              "Zn4 Y4 Rh2"
_cell_length_a       3.9381708554027726
_cell_length_b       5.604914894799015
_cell_length_c       10.61633586883545
_cell_angle_alpha    80.11574278941116
_cell_angle_beta     79.35698334720979
_cell_angle_gamma    69.45747760937338

_space_group_name_H-M_alt    "P 1"
_space_group_IT_number       1

loop_
  _space_group_symop_operation_xyz
  'x, y, z'

loop_
  _atom_site_type_symbol
  _atom_site_label
  _atom_site_symmetry_multiplicity
  _atom_site_fract_x
  _atom_site_fract_y
  _atom_site_fract_z
  _atom_site_occupancy
  Zn  Zn1       1.0  0.5899888873100281  0.20785740017890927  0.7159801721572876  1.0000
  Y   Y1        1.0  0.9315820932388305  0.3122871518135071  0.9286713004112244  1.0000
  Y   Y2        1.0  0.7332842350006104  0.2515891492366791  0.3853256404399872  1.0000
  Zn  Zn2       1.0  0.26544031500816345  0.7630829811096191  0.8107038140296936  1.0000
  Zn  Zn3       1.0  0.4543968439102173  0.8252335786819458  0.3711433708667755  1.0000
  Rh  Rh1       1.0  0.22599938511848452  0.07496602833271025  0.5776830911636353  1.0000
  Y   Y3        1.0  0.12250188738107681  0.7187636494636536  0.14163073897361755  1.0000
  Y   Y4        1.0  0.9245365858078003  0.6577358245849609  0.597959041595459  1.0000
  Rh  Rh2       1.0  0.629867196083069  0.8955687284469603  0.9490683078765869  1.0000
  Zn  Zn4       1.0  0.40193840861320496  0.1450362652540207  0.15572336316108704  1.0000
