data_image0
_chemical_formula_structural       AgIEr2PtRbRhInRbONbInPrTa
_chemical_formula_sum              "Ag1 I1 Er2 Pt1 Rb2 Rh1 In2 O1 Nb1 Pr1 Ta1"
_cell_length_a       2390.390202277973
_cell_length_b       1653.2259767292676
_cell_length_c       2595.863525390625
_cell_angle_alpha    14.685470902420036
_cell_angle_beta     10.577058701452867
_cell_angle_gamma    21.58283446949042

_space_group_name_H-M_alt    "P 1"
_space_group_IT_number       1

loop_
  _space_group_symop_operation_xyz
  'x, y, z'

loop_
  _atom_site_type_symbol
  _atom_site_label
  _atom_site_symmetry_multiplicity
  _atom_site_fract_x
  _atom_site_fract_y
  _atom_site_fract_z
  _atom_site_occupancy
  Ag  Ag1       1.0  0.6728211641311644  0.7143250107765198  0.3857542574405672  1.0000
  I   I1        1.0  0.30324831604957586  0.007160400971770234  0.5729135274887085  1.0000
  Er  Er1       1.0  0.22149568796157829  0.48728081583976735  0.37661150097847  1.0000
  Er  Er2       1.0  0.7351858019828794  0.5878183245658873  0.42085209488868736  1.0000
  Pt  Pt1       1.0  0.5380712151527403  0.7020332813262938  0.7022472023963932  1.0000
  Rb  Rb1       1.0  0.7030058503150939  0.8384203314781189  0.7960017919540406  1.0000
  Rh  Rh1       1.0  0.41302004456520064  0.7977113127708435  0.25089603662490856  1.0000
  In  In1       1.0  0.43848565220832825  0.4273347556591033  0.3982607126235963  1.0000
  Rb  Rb2       1.0  0.7339296936988828  0.7048361301422118  0.5635005235671999  1.0000
  O   O1        1.0  0.327620655298233  0.6529178619384765  0.830804228782654  1.0000
  Nb  Nb1       1.0  0.036397039890288994  0.867767035961151  0.5922653079032901  1.0000
  In  In2       1.0  0.19663812220096588  0.8597534894943237  0.9421096444129944  1.0000
  Pr  Pr1       1.0  0.5802934765815732  0.6441351175308224  0.9866312742233282  1.0000
  Ta  Ta1       1.0  0.7073516845703125  0.47503286600112915  0.11986082792282113  1.0000
