data_image0
_chemical_formula_structural       TmMgTm2Cd2
_chemical_formula_sum              "Tm3 Mg1 Cd2"
_cell_length_a       3.6028865177015073
_cell_length_b       3.6037040229939885
_cell_length_c       11.9307279586792
_cell_angle_alpha    90.00928473199106
_cell_angle_beta     90.01202363750153
_cell_angle_gamma    90.01524065555829

_space_group_name_H-M_alt    "P 1"
_space_group_IT_number       1

loop_
  _space_group_symop_operation_xyz
  'x, y, z'

loop_
  _atom_site_type_symbol
  _atom_site_label
  _atom_site_symmetry_multiplicity
  _atom_site_fract_x
  _atom_site_fract_y
  _atom_site_fract_z
  _atom_site_occupancy
  Tm  Tm1       1.0  0.4777247309684754  0.17543905973434445  0.7768782377243042  1.0000
  Mg  Mg1       1.0  0.47764855623245245  0.17538024485111234  0.08079345524311066  1.0000
  Tm  Tm2       1.0  0.9775887727737428  0.6754854917526244  0.25634095072746277  1.0000
  Tm  Tm3       1.0  0.9777101874351503  0.6755098700523376  0.5786277651786804  1.0000
  Cd  Cd1       1.0  0.4778600931167603  0.17550672590732574  0.4167395830154419  1.0000
  Cd  Cd2       1.0  0.9775856733322145  0.6753193140029907  0.943822205066681  1.0000
