data_image0
_chemical_formula_structural       PdSnBa2SiPd5
_chemical_formula_sum              "Pd6 Sn1 Ba2 Si1"
_cell_length_a       5.872457659751355
_cell_length_b       7.197517130837641
_cell_length_c       6.7247233390808105
_cell_angle_alpha    72.08408194577416
_cell_angle_beta     64.19041859408819
_cell_angle_gamma    66.02944131035989

_space_group_name_H-M_alt    "P 1"
_space_group_IT_number       1

loop_
  _space_group_symop_operation_xyz
  'x, y, z'

loop_
  _atom_site_type_symbol
  _atom_site_label
  _atom_site_symmetry_multiplicity
  _atom_site_fract_x
  _atom_site_fract_y
  _atom_site_fract_z
  _atom_site_occupancy
  Pd  Pd1       1.0  0.6910224556922914  0.8156769275665282  0.28773796558380127  1.0000
  Sn  Sn1       1.0  0.9755488634109497  0.5127800703048705  0.5215027332305908  1.0000
  Ba  Ba1       1.0  0.22940483689308167  0.7082264423370361  0.8183936476707458  1.0000
  Ba  Ba2       1.0  0.7214168906211853  0.31677818298339844  0.225176140666008  1.0000
  Si  Si1       1.0  0.47572436928749084  0.012953590601682663  0.021704915910959244  1.0000
  Pd  Pd2       1.0  0.23038806021213531  0.1429244726896286  0.3819165825843811  1.0000
  Pd  Pd3       1.0  0.7598193287849426  0.21028530597686768  0.756290853023529  1.0000
  Pd  Pd4       1.0  0.25990402698516846  0.20990811288356778  0.7559097409248352  1.0000
  Pd  Pd5       1.0  0.7208950519561768  0.882047951221466  0.66208416223526  1.0000
  Pd  Pd6       1.0  0.1906961351633072  0.8154125213623047  0.2876378893852234  1.0000
