data_image0
_chemical_formula_structural       YSiRhYSiRh2MnRhSi
_chemical_formula_sum              "Y2 Si3 Rh4 Mn1"
_cell_length_a       4.0974784593615174
_cell_length_b       4.095716639011254
_cell_length_c       10.061055183410645
_cell_angle_alpha    90.03201560488205
_cell_angle_beta     90.02959088553962
_cell_angle_gamma    90.05204854866088

_space_group_name_H-M_alt    "P 1"
_space_group_IT_number       1

loop_
  _space_group_symop_operation_xyz
  'x, y, z'

loop_
  _atom_site_type_symbol
  _atom_site_label
  _atom_site_symmetry_multiplicity
  _atom_site_fract_x
  _atom_site_fract_y
  _atom_site_fract_z
  _atom_site_occupancy
  Y   Y1        1.0  0.6940524578094482  0.24737651646137238  0.2568491995334625  1.0000
  Si  Si1       1.0  0.19409996271133423  0.24722531437873838  0.507752001285553  1.0000
  Rh  Rh1       1.0  0.1939620077610016  0.24719871580600739  0.007711397018283606  1.0000
  Y   Y2        1.0  0.19403333961963654  0.7471239566802979  0.758507251739502  1.0000
  Si  Si2       1.0  0.694062352180481  0.2471577376127243  0.8803237080574036  1.0000
  Rh  Rh2       1.0  0.19383686780929565  0.7473399043083191  0.36847132444381714  1.0000
  Rh  Rh3       1.0  0.6938937902450562  0.24738772213459012  0.6467550992965698  1.0000
  Mn  Mn1       1.0  0.694098949432373  0.7474368810653687  0.5074144005775452  1.0000
  Rh  Rh4       1.0  0.694003164768219  0.7472100853919982  0.007735993713140488  1.0000
  Si  Si3       1.0  0.19394880533218384  0.7472056746482849  0.13503050804138184  1.0000
