data_image0
_chemical_formula_structural       As2SrBaIOAsKBaTeRbOBaAs2O2As
_chemical_formula_sum              "As6 Sr1 Ba3 I1 O4 K1 Te1 Rb1"
_cell_length_a       22.982502343826685
_cell_length_b       24.159904477828032
_cell_length_c       42.735694885253906
_cell_angle_alpha    37.82174697943099
_cell_angle_beta     31.95963651380376
_cell_angle_gamma    48.882005853961175

_space_group_name_H-M_alt    "P 1"
_space_group_IT_number       1

loop_
  _space_group_symop_operation_xyz
  'x, y, z'

loop_
  _atom_site_type_symbol
  _atom_site_label
  _atom_site_symmetry_multiplicity
  _atom_site_fract_x
  _atom_site_fract_y
  _atom_site_fract_z
  _atom_site_occupancy
  As  As1       1.0  0.7291602492332455  0.587802767753601  0.7495540976524354  1.0000
  As  As2       1.0  0.9337299466133121  0.3861755430698395  0.3721781671047209  1.0000
  Sr  Sr1       1.0  0.48915350437164307  0.199143648147583  0.8050721287727356  1.0000
  Ba  Ba1       1.0  0.9941049218177793  0.16691215336322782  0.6922472119331361  1.0000
  I   I1        1.0  0.44642856717109686  0.4529689252376556  0.17872060835361483  1.0000
  O   O1        1.0  0.6886761784553528  0.17591612040996552  0.3125880062580108  1.0000
  As  As3       1.0  0.6482234597206116  0.22242991626262665  0.12430413067340851  1.0000
  K   K1        1.0  0.6113740205764772  0.7698966264724731  0.4084476232528686  1.0000
  Ba  Ba2       1.0  0.09745936840772629  0.0668448656797409  0.26152268052101135  1.0000
  Te  Te1       1.0  0.9996834397315979  0.7252601981163025  0.6138134002685546  1.0000
  Rb  Rb1       1.0  0.31969135999679565  0.8674343228340149  0.585696280002594  1.0000
  O   O2        1.0  0.1480602324008938  0.16109375655651093  0.9348840713500978  1.0000
  Ba  Ba3       1.0  0.12201450765132867  0.5961148738861084  0.9459622502326966  1.0000
  As  As4       1.0  0.4473053812980652  0.5163658261299133  0.6060209274291992  1.0000
  As  As5       1.0  0.8102675080299381  0.9989235997200012  0.772573411464691  1.0000
  O   O3        1.0  0.33750933408737144  0.8996785283088684  0.9825875759124757  1.0000
  O   O4        1.0  0.9304383397102356  0.6031573414802551  0.25191795825958246  1.0000
  As  As6       1.0  0.6835236549377444  0.4794871807098388  0.08021108061075204  1.0000
