data_image0
_chemical_formula_structural       ClVClVCl2LiCl4
_chemical_formula_sum              "Cl8 V2 Li1"
_cell_length_a       6.7274450502136425
_cell_length_b       7.644440283489093
_cell_length_c       9.244461059570312
_cell_angle_alpha    95.75694342645987
_cell_angle_beta     84.85020365922786
_cell_angle_gamma    77.76322676295314

_space_group_name_H-M_alt    "P 1"
_space_group_IT_number       1

loop_
  _space_group_symop_operation_xyz
  'x, y, z'

loop_
  _atom_site_type_symbol
  _atom_site_label
  _atom_site_symmetry_multiplicity
  _atom_site_fract_x
  _atom_site_fract_y
  _atom_site_fract_z
  _atom_site_occupancy
  Cl  Cl1       1.0  0.9616637229919435  0.8290426731109619  0.692939281463623  1.0000
  V   V1        1.0  0.12132592499256135  0.057068873196840286  0.3911966383457184  1.0000
  Cl  Cl2       1.0  0.16800692677497864  0.30691367387771606  0.34530529379844666  1.0000
  V   V2        1.0  0.2754163444042206  0.843027114868164  0.18410205841064453  1.0000
  Cl  Cl3       1.0  0.7865921258926392  0.060507602989673615  0.3880690038204193  1.0000
  Cl  Cl4       1.0  0.7353286743164062  0.6775246262550354  0.7168455719947815  1.0000
  Li  Li1       1.0  0.6237685084342957  0.8728106617927551  0.5321097373962402  1.0000
  Cl  Cl5       1.0  0.5354080200195312  0.6522084474563599  0.24486170709133148  1.0000
  Cl  Cl6       1.0  0.27990323305130005  0.008474869653582573  0.5930964946746826  1.0000
  Cl  Cl7       1.0  0.04732319340109825  0.7037621736526489  0.12843678891658783  1.0000
  Cl  Cl8       1.0  0.3453279435634613  0.9965699315071106  0.01720508188009261  1.0000
