data_image0
_chemical_formula_structural       BaPtBaNa2Ba4As
_chemical_formula_sum              "Ba6 Pt1 Na2 As1"
_cell_length_a       9.107003317593152
_cell_length_b       9.109123381673388
_cell_length_c       9.107063293457031
_cell_angle_alpha    60.00319362822317
_cell_angle_beta     59.99488728534768
_cell_angle_gamma    59.99347462647763

_space_group_name_H-M_alt    "P 1"
_space_group_IT_number       1

loop_
  _space_group_symop_operation_xyz
  'x, y, z'

loop_
  _atom_site_type_symbol
  _atom_site_label
  _atom_site_symmetry_multiplicity
  _atom_site_fract_x
  _atom_site_fract_y
  _atom_site_fract_z
  _atom_site_occupancy
  Ba  Ba1       1.0  0.15360677242279053  0.03492781892418862  0.20421628654003143  1.0000
  Pt  Pt1       1.0  0.9070958495140077  0.28196752071380615  0.4510639011859894  1.0000
  Ba  Ba2       1.0  0.15395265817642212  0.03503294289112091  0.6976636648178101  1.0000
  Na  Na1       1.0  0.6569117307662964  0.03207004442811012  0.20096571743488306  1.0000
  Na  Na2       1.0  0.15742971003055573  0.5316770672798157  0.7007579803466797  1.0000
  Ba  Ba3       1.0  0.6603568196296692  0.5282527208328247  0.2041989862918853  1.0000
  Ba  Ba4       1.0  0.6606789231300354  0.03479727730154991  0.6977583765983582  1.0000
  Ba  Ba5       1.0  0.6602693200111389  0.5287080407142639  0.6977048516273499  1.0000
  Ba  Ba6       1.0  0.1537138670682907  0.5286579132080079  0.2044746726751327  1.0000
  As  As1       1.0  0.40746647119522095  0.7820475101470947  0.9506033062934875  1.0000
