data_image0
_chemical_formula_structural       Rb2PTbRbYRbTeRb
_chemical_formula_sum              "Rb5 P1 Tb1 Y1 Te1"
_cell_length_a       294.14189431584265
_cell_length_b       323.43136964907893
_cell_length_c       289.2146911621094
_cell_angle_alpha    1.7022637574604282
_cell_angle_beta     5.586653350559843
_cell_angle_gamma    3.885537635672478

_space_group_name_H-M_alt    "P 1"
_space_group_IT_number       1

loop_
  _space_group_symop_operation_xyz
  'x, y, z'

loop_
  _atom_site_type_symbol
  _atom_site_label
  _atom_site_symmetry_multiplicity
  _atom_site_fract_x
  _atom_site_fract_y
  _atom_site_fract_z
  _atom_site_occupancy
  Rb  Rb1       1.0  0.511390805244446  0.3905633091926573  0.7406790852546693  1.0000
  Rb  Rb2       1.0  0.3693089485168457  0.11713851988315582  0.12240324914455414  1.0000
  P   P1        1.0  0.27231159806251526  0.4628429412841795  0.3944459557533266  1.0000
  Tb  Tb1       1.0  0.7966037392616272  0.49815356731414806  0.5687841773033142  1.0000
  Rb  Rb3       1.0  0.1764674335718155  0.9567264318466187  0.35290735960006714  1.0000
  Y   Y1        1.0  0.27135819196701044  0.006162405014038173  0.6551215648651123  1.0000
  Rb  Rb4       1.0  0.8491430282592773  0.6185898780822751  0.997903406620026  1.0000
  Te  Te1       1.0  0.2558925747871399  0.8140140175819394  0.8934254050254825  1.0000
  Rb  Rb5       1.0  0.2655549645423888  0.8054747581481935  0.8380521535873413  1.0000
