data_image0
_chemical_formula_structural       ErTb3DyErYEr2TbEr3DyEr2
_chemical_formula_sum              "Er9 Tb4 Dy2 Y1"
_cell_length_a       6.653960331246275
_cell_length_b       8.844000087566396
_cell_length_c       9.067404747009277
_cell_angle_alpha    76.52310420088405
_cell_angle_beta     75.37151901138897
_cell_angle_gamma    79.44802985429425

_space_group_name_H-M_alt    "P 1"
_space_group_IT_number       1

loop_
  _space_group_symop_operation_xyz
  'x, y, z'

loop_
  _atom_site_type_symbol
  _atom_site_label
  _atom_site_symmetry_multiplicity
  _atom_site_fract_x
  _atom_site_fract_y
  _atom_site_fract_z
  _atom_site_occupancy
  Er  Er1       1.0  0.29399207234382635  0.2282067686319351  0.34550949931144714  1.0000
  Tb  Tb1       1.0  0.2745196223258972  0.42836707830429077  0.9713850021362305  1.0000
  Tb  Tb2       1.0  0.4006017744541168  0.6256706714630127  0.24757793545722961  1.0000
  Tb  Tb3       1.0  0.013516156002879141  0.1059364527463913  0.7246322631835938  1.0000
  Dy  Dy1       1.0  0.2113579958677292  0.4466358721256256  0.6167563199996948  1.0000
  Er  Er2       1.0  0.6930198669433594  0.4720412492752075  0.6494380831718445  1.0000
  Y   Y1        1.0  0.4905156195163727  0.09465675055980682  0.8310329914093018  1.0000
  Er  Er3       1.0  0.7682427763938904  0.31235203146934504  0.030887350440025302  1.0000
  Er  Er4       1.0  0.7276568412780762  0.7087673544883728  0.8844428062438965  1.0000
  Tb  Tb4       1.0  0.9739146828651428  0.8094003200531006  0.5015569925308228  1.0000
  Er  Er5       1.0  0.43811967968940735  0.8477216958999634  0.5795502662658691  1.0000
  Er  Er6       1.0  0.12996281683444977  0.044952716678380966  0.16168102622032166  1.0000
  Er  Er7       1.0  0.15073768794536593  0.7935971617698669  0.9558408260345459  1.0000
  Dy  Dy2       1.0  0.6655480265617371  0.9331212639808655  0.19005011022090906  1.0000
  Er  Er8       1.0  0.7390553951263428  0.1843261420726776  0.4388442933559418  1.0000
  Er  Er9       1.0  0.914703905582428  0.5430939793586731  0.2744308710098266  1.0000
