data_image0
_chemical_formula_structural       LiMgTl3MgTlMgTl4
_chemical_formula_sum              "Li1 Mg3 Tl8"
_cell_length_a       6.03356151735947
_cell_length_b       7.982710310755133
_cell_length_c       8.671944618225098
_cell_angle_alpha    60.79696344328235
_cell_angle_beta     65.92764208312519
_cell_angle_gamma    73.38887887872461

_space_group_name_H-M_alt    "P 1"
_space_group_IT_number       1

loop_
  _space_group_symop_operation_xyz
  'x, y, z'

loop_
  _atom_site_type_symbol
  _atom_site_label
  _atom_site_symmetry_multiplicity
  _atom_site_fract_x
  _atom_site_fract_y
  _atom_site_fract_z
  _atom_site_occupancy
  Li  Li1       1.0  0.8205129504203796  0.13730739057064056  0.16650065779685974  1.0000
  Mg  Mg1       1.0  0.011468795128166669  0.9653755426406861  0.8829131722450255  1.0000
  Tl  Tl1       1.0  0.42430034279823303  0.9852975606918336  0.5252468585968016  1.0000
  Tl  Tl2       1.0  0.717361569404602  0.6894565224647522  0.308991640806198  1.0000
  Tl  Tl3       1.0  0.8776763081550598  0.2112580239772797  0.47112321853637695  1.0000
  Mg  Mg2       1.0  0.6003000736236572  0.7737090587615968  0.8600165843963622  1.0000
  Tl  Tl4       1.0  0.3742024302482605  0.051611986011266715  0.062052931636571884  1.0000
  Mg  Mg3       1.0  0.32793393731117254  0.3482082784175873  0.6604601144790649  1.0000
  Tl  Tl5       1.0  0.0854843407869339  0.5272814631462097  0.9621147513389587  1.0000
  Tl  Tl6       1.0  0.05572565644979476  0.7667156457901001  0.48577073216438293  1.0000
  Tl  Tl7       1.0  0.7407854795455933  0.395519107580185  0.7893195748329163  1.0000
  Tl  Tl8       1.0  0.3846660852432251  0.45984363555908203  0.24126245081424708  1.0000
