data_image0
_chemical_formula_structural       RbAgInRbInIKInAuRb
_chemical_formula_sum              "Rb3 Ag1 In3 I1 K1 Au1"
_cell_length_a       53.234000114892325
_cell_length_b       51.01461079470564
_cell_length_c       59.10455322265625
_cell_angle_alpha    21.67813197676441
_cell_angle_beta     24.382785864489847
_cell_angle_gamma    6.584330894666702

_space_group_name_H-M_alt    "P 1"
_space_group_IT_number       1

loop_
  _space_group_symop_operation_xyz
  'x, y, z'

loop_
  _atom_site_type_symbol
  _atom_site_label
  _atom_site_symmetry_multiplicity
  _atom_site_fract_x
  _atom_site_fract_y
  _atom_site_fract_z
  _atom_site_occupancy
  Rb  Rb1       1.0  0.20217043161392254  0.42947995662689215  0.9744148254394528  1.0000
  Ag  Ag1       1.0  0.04168002307415018  0.49386093020439154  0.6723210811614989  1.0000
  In  In1       1.0  0.938053488731384  0.7269533276557922  0.2579360008239749  1.0000
  Rb  Rb2       1.0  0.5373835563659668  0.5107170343399048  0.419924259185791  1.0000
  In  In2       1.0  0.4490518271923064  0.27447137236595154  0.72459614276886  1.0000
  I   I1        1.0  0.6528024077415466  0.880181908607483  0.9099130034446716  1.0000
  K   K1        1.0  0.3660892844200133  0.7487865686416626  0.5115210413932801  1.0000
  In  In3       1.0  0.5824669599533081  0.16143888235092166  0.27177420258522034  1.0000
  Au  Au1       1.0  0.8987852931022646  0.2226400226354599  0.4457542300224303  1.0000
  Rb  Rb3       1.0  0.16498023271560658  0.8371229767799379  0.8330392241477966  1.0000
