data_image0
_chemical_formula_structural       ZrCl2RbCl3Tl2Cl3
_chemical_formula_sum              "Zr1 Cl8 Rb1 Tl2"
_cell_length_a       6.8577936627891924
_cell_length_b       6.64847165282064
_cell_length_c       9.113975524902344
_cell_angle_alpha    90.32595276313505
_cell_angle_beta     90.141237155918
_cell_angle_gamma    90.61643390800306

_space_group_name_H-M_alt    "P 1"
_space_group_IT_number       1

loop_
  _space_group_symop_operation_xyz
  'x, y, z'

loop_
  _atom_site_type_symbol
  _atom_site_label
  _atom_site_symmetry_multiplicity
  _atom_site_fract_x
  _atom_site_fract_y
  _atom_site_fract_z
  _atom_site_occupancy
  Zr  Zr1       1.0  0.7814705967903137  0.5789628624916078  0.5035037994384766  1.0000
  Cl  Cl1       1.0  0.9190922975540161  0.8010635375976562  0.30948781967163086  1.0000
  Cl  Cl2       1.0  0.4806120693683624  0.7844022512435913  0.503585696220398  1.0000
  Rb  Rb1       1.0  0.7814175486564636  0.5788518786430359  0.003617525100708008  1.0000
  Cl  Cl3       1.0  0.4007270038127899  0.8538200259208679  0.003146052360534668  1.0000
  Cl  Cl4       1.0  0.08276554197072983  0.3736612498760224  0.503810703754425  1.0000
  Cl  Cl5       1.0  0.6441173553466797  0.35573822259902954  0.30775153636932373  1.0000
  Tl  Tl1       1.0  0.28127431869506836  0.07923059165477753  0.2517300844192505  1.0000
  Tl  Tl2       1.0  0.28131502866744995  0.07846275717020035  0.7553753852844238  1.0000
  Cl  Cl6       1.0  0.6442067623138428  0.35628753900527954  0.6975008845329285  1.0000
  Cl  Cl7       1.0  0.16208921372890472  0.3033791482448578  0.0034297932870686054  1.0000
  Cl  Cl8       1.0  0.9189789891242981  0.80171537399292  0.6994708180427551  1.0000
