data_image0
_chemical_formula_structural       CdRbNbBrVLa
_chemical_formula_sum              "Cd1 Rb1 Nb1 Br1 V1 La1"
_cell_length_a       474.10695522022655
_cell_length_b       413.91430462330135
_cell_length_c       360.5534973144531
_cell_angle_alpha    13.566579466607788
_cell_angle_beta     19.70812959056508
_cell_angle_gamma    18.27290010836701

_space_group_name_H-M_alt    "P 1"
_space_group_IT_number       1

loop_
  _space_group_symop_operation_xyz
  'x, y, z'

loop_
  _atom_site_type_symbol
  _atom_site_label
  _atom_site_symmetry_multiplicity
  _atom_site_fract_x
  _atom_site_fract_y
  _atom_site_fract_z
  _atom_site_occupancy
  Cd  Cd1       1.0  0.03485193848609924  0.7171722650527954  0.8016024231910706  1.0000
  Rb  Rb1       1.0  0.9165475964546204  0.20335167646408084  0.4105670154094697  1.0000
  Nb  Nb1       1.0  0.1256806254386902  0.7170051932334901  0.3842236697673796  1.0000
  Br  Br1       1.0  0.21947520971298212  0.4494463205337525  0.515417218208313  1.0000
  V   V1        1.0  0.8242187499999999  0.4248497188091279  0.5652961730957032  1.0000
  La  La1       1.0  0.5790193676948547  0.4256551265716553  0.28899958729743963  1.0000
