data_image0
_chemical_formula_structural       WISGeRbSn
_chemical_formula_sum              "W1 I1 S1 Ge1 Rb1 Sn1"
_cell_length_a       1330.1778158143868
_cell_length_b       1597.9634732016323
_cell_length_c       1268.093994140625
_cell_angle_alpha    13.643873700071715
_cell_angle_beta     10.554635732154901
_cell_angle_gamma    10.132085243267607

_space_group_name_H-M_alt    "P 1"
_space_group_IT_number       1

loop_
  _space_group_symop_operation_xyz
  'x, y, z'

loop_
  _atom_site_type_symbol
  _atom_site_label
  _atom_site_symmetry_multiplicity
  _atom_site_fract_x
  _atom_site_fract_y
  _atom_site_fract_z
  _atom_site_occupancy
  W   W1        1.0  0.0594511218369006  0.0881316661834717  0.8067044019699098  1.0000
  I   I1        1.0  0.08082261681556702  0.29441627860069275  0.2443834394216538  1.0000
  S   S1        1.0  0.2736280858516693  0.4431011974811554  0.5100474953651427  1.0000
  Ge  Ge1       1.0  0.11330368369817724  0.29553982615470886  0.6736059188842775  1.0000
  Rb  Rb1       1.0  0.26319456100463867  0.11666476726531982  0.2596534788608551  1.0000
  Sn  Sn1       1.0  0.7752660512924194  0.8068736791610718  0.1998873502016067  1.0000
